123630
  -OEChem-09162611403D

 32 34  0     1  0  0  0  0  0999 V2000
    0.0157   -1.4148    0.3388 S   0  0  0  0  0  0  0  0  0  0  0  0
    0.9326   -1.8301    1.3824 O   0  0  0  0  0  0  0  0  0  0  0  0
    0.0431   -2.0564   -0.9626 O   0  0  0  0  0  0  0  0  0  0  0  0
   -3.9044   -0.6287   -1.3156 O   0  0  0  0  0  0  0  0  0  0  0  0
   -1.0824    3.0989   -0.5139 O   0  0  0  0  0  0  0  0  0  0  0  0
   -2.7363    2.2896    0.8299 O   0  0  0  0  0  0  0  0  0  0  0  0
   -2.1600   -0.2357    0.2222 N   0  0  0  0  0  0  0  0  0  0  0  0
    2.5209    0.3863   -0.5342 N   0  0  0  0  0  0  0  0  0  0  0  0
    3.0109   -0.8371   -0.7669 N   0  0  0  0  0  0  0  0  0  0  0  0
    4.2372   -0.8664   -0.2567 N   0  0  0  0  0  0  0  0  0  0  0  0
    0.1424    0.4162    0.1024 C   0  0  2  0  0  0  0  0  0  0  0  0
   -1.6519   -1.3910    0.9778 C   0  0  1  0  0  0  0  0  0  0  0  0
   -1.2863    0.7675   -0.3557 C   0  0  2  0  0  0  0  0  0  0  0  0
   -2.7670   -2.2176    0.3265 C   0  0  0  0  0  0  0  0  0  0  0  0
   -3.1426   -0.9246   -0.4233 C   0  0  0  0  0  0  0  0  0  0  0  0
    1.1834    0.7349   -0.9716 C   0  0  0  0  0  0  0  0  0  0  0  0
    0.5484    1.0683    1.4332 C   0  0  0  0  0  0  0  0  0  0  0  0
   -1.7991    2.1060    0.0674 C   0  0  0  0  0  0  0  0  0  0  0  0
    3.4029    1.1758    0.1261 C   0  0  0  0  0  0  0  0  0  0  0  0
    4.4925    0.3587    0.2939 C   0  0  0  0  0  0  0  0  0  0  0  0
   -1.7157   -1.2467    2.0599 H   0  0  0  0  0  0  0  0  0  0  0  0
   -1.3923    0.6903   -1.4454 H   0  0  0  0  0  0  0  0  0  0  0  0
   -3.5441   -2.5675    1.0114 H   0  0  0  0  0  0  0  0  0  0  0  0
   -2.4473   -3.0358   -0.3229 H   0  0  0  0  0  0  0  0  0  0  0  0
    1.1952    1.8058   -1.2059 H   0  0  0  0  0  0  0  0  0  0  0  0
    0.9944    0.2019   -1.9106 H   0  0  0  0  0  0  0  0  0  0  0  0
   -0.2472    0.9548    2.1794 H   0  0  0  0  0  0  0  0  0  0  0  0
    1.4363    0.6169    1.8852 H   0  0  0  0  0  0  0  0  0  0  0  0
    0.7337    2.1418    1.3191 H   0  0  0  0  0  0  0  0  0  0  0  0
   -1.4033    3.9867   -0.2475 H   0  0  0  0  0  0  0  0  0  0  0  0
    3.2017    2.2005    0.4038 H   0  0  0  0  0  0  0  0  0  0  0  0
    5.4327    0.5852    0.7732 H   0  0  0  0  0  0  0  0  0  0  0  0
  1  2  2  0  0  0  0
  1  3  2  0  0  0  0
  1 11  1  0  0  0  0
  1 12  1  0  0  0  0
  4 15  2  0  0  0  0
  5 18  1  0  0  0  0
  5 30  1  0  0  0  0
  6 18  2  0  0  0  0
  7 12  1  0  0  0  0
  7 13  1  0  0  0  0
  7 15  1  0  0  0  0
  8  9  1  0  0  0  0
  8 16  1  0  0  0  0
  8 19  1  0  0  0  0
  9 10  2  0  0  0  0
 10 20  1  0  0  0  0
 11 13  1  0  0  0  0
 11 16  1  0  0  0  0
 11 17  1  0  0  0  0
 12 14  1  0  0  0  0
 12 21  1  0  0  0  0
 13 18  1  0  0  0  0
 13 22  1  0  0  0  0
 14 15  1  0  0  0  0
 14 23  1  0  0  0  0
 14 24  1  0  0  0  0
 16 25  1  0  0  0  0
 16 26  1  0  0  0  0
 17 27  1  0  0  0  0
 17 28  1  0  0  0  0
 17 29  1  0  0  0  0
 19 20  2  0  0  0  0
 19 31  1  0  0  0  0
 20 32  1  0  0  0  0
M  END
> <PUBCHEM_COMPOUND_CID>
123630

> <PUBCHEM_CONFORMER_RMSD>
0.6

> <PUBCHEM_CONFORMER_DIVERSEORDER>
4
1
6
11
12
15
9
8
13
5
2
3
14
10
7

> <PUBCHEM_MMFF94_PARTIAL_CHARGES>
22
1 1.1
10 -0.23
11 0.11
12 0.32
13 0.36
14 0.05
15 0.58
16 0.26
18 0.66
19 -0.3
2 -0.65
20 0.08
3 -0.65
30 0.5
31 0.15
32 0.15
4 -0.57
5 -0.65
6 -0.57
7 -0.59
8 0.31
9 -0.42

> <PUBCHEM_EFFECTIVE_ROTOR_COUNT>
3.6

> <PUBCHEM_PHARMACOPHORE_FEATURES>
9
1 2 acceptor
1 3 acceptor
1 4 acceptor
1 5 acceptor
1 6 acceptor
3 5 6 18 anion
4 7 12 14 15 rings
5 8 9 10 19 20 rings
7 1 7 11 12 13 14 15 rings

> <PUBCHEM_HEAVY_ATOM_COUNT>
20

> <PUBCHEM_ATOM_DEF_STEREO_COUNT>
3

> <PUBCHEM_ATOM_UDEF_STEREO_COUNT>
0

> <PUBCHEM_BOND_DEF_STEREO_COUNT>
0

> <PUBCHEM_BOND_UDEF_STEREO_COUNT>
0

> <PUBCHEM_ISOTOPIC_ATOM_COUNT>
0

> <PUBCHEM_COMPONENT_COUNT>
1

> <PUBCHEM_CACTVS_TAUTO_COUNT>
1

> <PUBCHEM_CONFORMER_ID>
0001E2EE00000004

> <PUBCHEM_MMFF94_ENERGY>
41.7865

> <PUBCHEM_FEATURE_SELFOVERLAP>
49.428

> <PUBCHEM_SHAPE_FINGERPRINT>
10062212 137 18268142072327265682
10366900 7 18271246148693033360
104564 63 18412262813995808169
10863032 1 18199750254350920390
11315181 36 18186803613146888296
12403814 3 17917427674302458335
13140716 1 18192723464669274707
14251745 187 18413102866206283673
14614273 12 18341058410805675265
16752209 62 18411416202832558786
16945 1 18336282217935557926
17357779 13 18271794778898455285
192875 21 18333731351069894388
19862831 5 17603578664264778110
200 152 17846498153572569694
20510252 161 18412830204776829568
20525323 117 18411705357068187975
21501502 16 18266171730231066803
22344851 341 18192441765974813715
23402539 116 18341607152959737583
23419403 2 17202747302291837273
23557571 272 18130798840891488532
23558518 356 18262530285122227696
23559900 14 18337105795785661512
2748010 2 18049432944742567267
3286 77 17059772346533828017
353137 74 18260827090271148347
4340502 62 18125455120250296377
5104073 3 18341611495746550856
69090 78 18273210941364360310
81228 2 18336274512753887481
9709674 26 18342183241434629006

> <PUBCHEM_SHAPE_MULTIPOLES>
366.17
6.5
2.59
1.1
5.01
1.08
0.12
-0.93
-0.91
-1.78
0.21
-0.18
-0.11
0

> <PUBCHEM_SHAPE_SELFOVERLAP>
777.564

> <PUBCHEM_SHAPE_VOLUME>
206.9

> <PUBCHEM_COORDINATE_TYPE>
2
5
10

$$$$
